data_00-050-1778
# Copyright 2025 International Centre for Diffraction Data. All rights reserved.

_audit_creation_date                  2025-07-04
_audit_creation_method                'Generated by PDF-5+ 2025 4.25.0.2'

_chemical_name_systematic             'Cobalt Iron Vanadium Oxide'
_chemical_formula_moiety              'Co3.60 Fe3.60 ( V O4 )6'
_chemical_formula_sum                 'Co3.6 Fe3.6 O24 V6'
_chemical_formula_weight              1102.83

# Atomic parameters are cross-referenced from PDF entry 04-012-7214

_cell_length_a                        4.96392(2)
_cell_length_b                        10.22260(3)
_cell_length_c                        17.20710(5)
_cell_angle_alpha                     90
_cell_angle_beta                      90
_cell_angle_gamma                     90
_cell_formula_units_Z                 4
_cell_volume                          873.16
_symmetry_cell_setting                orthorhombic
_symmetry_space_group_name_H-M        Pnma
_symmetry_Int_Tables_number           62

loop_
_symmetry_equiv_pos_site_id
_symmetry_equiv_pos_as_xyz
1 x,y,z
2 -x,-y,-z
3 x+1/2,-y+1/2,-z+1/2
4 -x+1/2,y+1/2,z+1/2
5 -x,y+1/2,-z
6 x,-y+1/2,z
7 -x+1/2,-y,z+1/2
8 x+1/2,y,-z+1/2

loop_
_atom_site_label
_atom_site_type_symbol
_atom_site_fract_x
_atom_site_fract_y
_atom_site_fract_z
_atom_site_U_iso_or_equiv
_atom_site_symmetry_multiplicity
_atom_site_Wyckoff_symbol
_atom_site_occupancy
Co1 Co 0.244 0.25 0.80291 0.0146 4 c 0.84412
Fe2 Fe 0.244 0.25 0.80291 0.0146 4 c 0.09588
Fe3 Fe 0.2474 0.42299 0.97183 0.0107 8 d 0.555
Co4 Co 0.2474 0.42299 0.97183 0.0107 8 d 0.445
Fe5 Fe 0.0902 0.25 0.2508 0.0055 4 c 0.594
Co6 Co 0.0902 0.25 0.2508 0.0055 4 c 0.066
V7 V -0.2237 0.25 0.05647 0.0111 4 c 1.0
V8 V 0.7232 0.47235 0.84335 0.012 8 d 1.0
O9 O 0.6603 0.6172 0.7964 0.0127 8 d 1.0
O10 O 0.4257 0.3904 0.8717 0.0086 8 d 1.0
O11 O 0.0764 0.25 0.9961 0.006 4 c 1.0
O12 O 0.5925 0.3846 0.0355 0.0113 8 d 1.0
O13 O 0.911 0.5034 0.9278 0.0095 8 d 1.0
O14 O 0.6496 0.75 0.6537 0.008 4 c 1.0
O15 O -0.0856 0.3737 0.7875 0.0155 8 d 1.0

