data_00-061-0353
# Copyright 2025 International Centre for Diffraction Data. All rights reserved.

_audit_creation_date                  2025-07-04
_audit_creation_method                'Generated by PDF-5+ 2025 4.25.0.2'

_chemical_name_systematic             'Strontium Aluminum Silicate'
_chemical_name_common                 'tristrontium decaaluminum silicon icosaoxide'
_chemical_formula_moiety              'Sr3 Al10 Si O20'
_chemical_formula_sum                 'Al10 O20 Si Sr3'
_chemical_formula_weight              880.75

_cell_length_a                        15.1416(18)
_cell_length_b                        11.1843(12)
_cell_length_c                        4.902560
_cell_angle_alpha                     90.0
_cell_angle_beta                      108.117(5)
_cell_angle_gamma                     90.0
_cell_formula_units_Z                 2
_cell_volume                          789.07
_symmetry_cell_setting                monoclinic
_symmetry_space_group_name_H-M        C12/m1
_symmetry_Int_Tables_number           12

loop_
_symmetry_equiv_pos_site_id
_symmetry_equiv_pos_as_xyz
1 x,y,z
2 -x,-y,-z
3 x,-y,z
4 -x,y,-z
5 x+1/2,y+1/2,z
6 -x+1/2,-y+1/2,-z
7 x+1/2,-y+1/2,z
8 -x+1/2,y+1/2,-z

loop_
_atom_site_label
_atom_site_type_symbol
_atom_site_fract_x
_atom_site_fract_y
_atom_site_fract_z
_atom_site_U_iso_or_equiv
_atom_site_symmetry_multiplicity
_atom_site_Wyckoff_symbol
_atom_site_occupancy
O1 O 0.0855 0.2463 0.4289 0.0056 . . 1.0
Al2 Al 0.1347 0.2119 0.1632 0.0037 . . 0.875
Si3 Si 0.1347 0.2119 0.1632 0.0037 . . 0.125
O4 O 0.2398 0.1419 0.3237 0.0056 . . 1.0
Al5 Al 0.3549 0.1381 0.3471 0.0089 . . 0.875
Si6 Si 0.3549 0.1381 0.3471 0.0089 . . 0.125
O7 O 0.3604 0.151 0.0032 0.0056 . . 1.0
O8 O 0.4279 0.3808 0.1046 0.0056 . . 1.0
O9 O 0.0658 0.0 0.3853 0.0056 . . 1.0
Sr10 Sr 0.2168 0.0 0.7386 0.0168 . . 1.0
O11 O 0.4013 0.0 0.4756 0.0056 . . 1.0
Al12 Al 0.0 0.128 0.5 0.0077 . . 1.0
Sr13 Sr 0.0 0.5 0.0 0.0127 . . 1.0
Al14 Al 0.0 0.0 0.0 0.013 . . 1.0

