data_00-061-0387
# Copyright 2025 International Centre for Diffraction Data. All rights reserved.

_audit_creation_date                  2025-07-04
_audit_creation_method                'Generated by PDF-5+ 2025 4.25.0.2'

_chemical_name_systematic             'Aluminum Phosphate'
_chemical_name_common                 aluminophosphate
_chemical_formula_moiety              'Al P O4'
_chemical_formula_sum                 'Al O4 P'
_chemical_formula_weight              121.95

_cell_length_a                        22.5541(3)
_cell_length_b                        13.7357(2)
_cell_length_c                        14.0756(2)
_cell_angle_alpha                     90.0
_cell_angle_beta                      98.6174(18)
_cell_angle_gamma                     90.0
_cell_formula_units_Z                 32
_cell_volume                          4311.34
_symmetry_cell_setting                monoclinic
_symmetry_space_group_name_H-M        C12/c1
_symmetry_Int_Tables_number           15

loop_
_symmetry_equiv_pos_site_id
_symmetry_equiv_pos_as_xyz
1 x,y,z
2 -x,-y,-z
3 -x,y,-z+1/2
4 x,-y,z+1/2
5 x+1/2,y+1/2,z
6 -x+1/2,-y+1/2,-z
7 -x+1/2,y+1/2,-z+1/2
8 x+1/2,-y+1/2,z+1/2

loop_
_atom_site_label
_atom_site_type_symbol
_atom_site_fract_x
_atom_site_fract_y
_atom_site_fract_z
_atom_site_U_iso_or_equiv
_atom_site_symmetry_multiplicity
_atom_site_Wyckoff_symbol
_atom_site_occupancy
AL1 AL 0.8376 0.1106 0.8027 0.005 . . 1.0
AL2 AL 0.1675 0.7966 0.904 0.005 . . 1.0
AL3 AL 0.0694 0.8894 0.5081 0.005 . . 1.0
AL4 AL 0.2589 0.8903 0.5644 0.005 . . 1.0
P5 P 0.8319 0.2038 0.5959 0.005 . . 1.0
P6 P 0.9308 0.1135 0.9909 0.005 . . 1.0
P7 P 0.7399 0.1095 0.9384 0.005 . . 1.0
P8 P 0.1625 0.8858 0.6958 0.005 . . 1.0
O9 O 0.8387 0.186 0.7076 0.007 . . 1.0
O10 O 0.8953 0.182 0.567 0.007 . . 1.0
O11 O 0.7828 0.122 0.0408 0.007 . . 1.0
O12 O 0.8203 0.3142 0.574 0.007 . . 1.0
O13 O 0.9001 0.129 0.8808 0.007 . . 1.0
O14 O 0.778 0.128 0.858 0.007 . . 1.0
O15 O 0.8346 -0.0078 0.7612 0.007 . . 1.0
O16 O 0.9252 0.0063 0.0186 0.007 . . 1.0
O17 O 0.7129 0.0032 0.9366 0.007 . . 1.0
O18 O -0.0023 0.8483 0.499 0.007 . . 1.0
O19 O 0.16 0.814 0.7853 0.007 . . 1.0
O20 O 0.1009 0.814 0.943 0.007 . . 1.0
O21 O 0.2165 0.869 0.452 0.007 . . 1.0
O22 O 0.1825 0.6796 0.93 0.007 . . 1.0
O23 O 0.1056 0.866 0.6228 0.007 . . 1.0
O24 O 0.2181 0.859 0.645 0.007 . . 1.0

