data_00-050-0214
# Copyright 2025 International Centre for Diffraction Data. All rights reserved.

_audit_creation_date                  2025-07-04
_audit_creation_method                'Generated by PDF-5+ 2025 4.25.0.2'

_chemical_name_systematic             'Sodium Calcium Manganese Phosphate'
_chemical_formula_moiety              'Ca9 Mn Na ( P O4 )7'
_chemical_formula_sum                 'Ca9 Mn Na O28 P7'
_chemical_formula_weight              1103.42

# Atomic parameters are cross-referenced from PDF entry 04-015-9632

_cell_length_a                        10.3764(2)
_cell_length_b                        10.3764(2)
_cell_length_c                        37.079(1)
_cell_angle_alpha                     90
_cell_angle_beta                      90
_cell_angle_gamma                     120
_cell_formula_units_Z                 6
_cell_volume                          3457.42
_symmetry_cell_setting                hexagonal
_symmetry_space_group_name_H-M        R3c
_symmetry_Int_Tables_number           161

loop_
_symmetry_equiv_pos_site_id
_symmetry_equiv_pos_as_xyz
1 x,y,z
2 -y,x-y,z
3 -x+y,-x,z
4 -y,-x,z+1/2
5 x,x-y,z+1/2
6 -x+y,y,z+1/2
7 x+2/3,y+1/3,z+1/3
8 -y+2/3,x-y+1/3,z+1/3
9 -x+y+2/3,-x+1/3,z+1/3
10 -y+2/3,-x+1/3,z+5/6
11 x+2/3,x-y+1/3,z+5/6
12 -x+y+2/3,y+1/3,z+5/6
13 x+1/3,y+2/3,z+2/3
14 -y+1/3,x-y+2/3,z+2/3
15 -x+y+1/3,-x+2/3,z+2/3
16 -y+1/3,-x+2/3,z+1/6
17 x+1/3,x-y+2/3,z+1/6
18 -x+y+1/3,y+2/3,z+1/6

loop_
_atom_site_label
_atom_site_type_symbol
_atom_site_fract_x
_atom_site_fract_y
_atom_site_fract_z
_atom_site_B_iso_or_equiv
_atom_site_symmetry_multiplicity
_atom_site_Wyckoff_symbol
_atom_site_occupancy
Ca1 Ca 0.728 0.8578 0.4325 0.6 18 b 1.0
Ca2 Ca 0.616 0.8228 0.2316 0.08 18 b 1.0
Ca3 Ca 0.1194 0.2662 0.3254 0.63 18 b 1.0
Na4 Na 0.0 0.0 0.1851 2.6 6 a 1.0
Mn5 Mn 0.0 0.0 0.0 0.45 6 a 1.0
P6 P 0.0 0.0 0.2659 1.4 6 a 1.0
P7 P 0.6872 0.8583 0.1353 0.5 18 b 1.0
P8 P 0.6534 0.8479 0.0318 0.8 18 b 1.0
O9 O 0.0 0.0 0.3088 0.26 6 a 1.0
O10 O 0.0107 0.8643 0.2519 0.26 18 b 1.0
O11 O 0.7511 0.9285 0.1746 0.26 18 b 1.0
O12 O 0.765 0.774 0.122 0.26 18 b 1.0
O13 O 0.729 0.0046 0.1126 0.26 18 b 1.0
O14 O 0.5205 0.771 0.1314 0.26 18 b 1.0
O15 O 0.608 0.957 0.0456 0.26 18 b 1.0
O16 O 0.5698 0.6921 0.0525 0.26 18 b 1.0
O17 O 0.8237 0.921 0.0403 0.26 18 b 1.0
O18 O 0.6197 0.8222 0.992 0.26 18 b 1.0

