data_00-061-0796
# Copyright 2025 International Centre for Diffraction Data. All rights reserved.

_audit_creation_date                  2025-07-04
_audit_creation_method                'Generated by PDF-5+ 2025 4.25.0.2'

_chemical_name_systematic             'Cobalt Tantalum Oxide'
_chemical_formula_moiety              'Co Ta2 O6'
_chemical_formula_sum                 'Co O6 Ta2'
_chemical_formula_weight              516.82

# Atomic parameters are cross-referenced from PDF entry 04-007-8172

_cell_length_a                        4.7358(3)
_cell_length_b                        4.7358(3)
_cell_length_c                        9.1708(7)
_cell_angle_alpha                     90
_cell_angle_beta                      90
_cell_angle_gamma                     90
_cell_formula_units_Z                 2
_cell_volume                          205.68
_symmetry_cell_setting                tetragonal
_symmetry_space_group_name_H-M        P42/mnm
_symmetry_Int_Tables_number           136

loop_
_symmetry_equiv_pos_site_id
_symmetry_equiv_pos_as_xyz
1 x,y,z
2 -x,-y,-z
3 -x,-y,z
4 x,y,-z
5 x+1/2,-y+1/2,z+1/2
6 -x+1/2,y+1/2,-z+1/2
7 -x+1/2,y+1/2,z+1/2
8 x+1/2,-y+1/2,-z+1/2
9 y,x,z
10 -y,-x,-z
11 -y,-x,z
12 y,x,-z
13 y+1/2,-x+1/2,z+1/2
14 -y+1/2,x+1/2,-z+1/2
15 -y+1/2,x+1/2,z+1/2
16 y+1/2,-x+1/2,-z+1/2

loop_
_atom_site_label
_atom_site_type_symbol
_atom_site_fract_x
_atom_site_fract_y
_atom_site_fract_z
_atom_site_B_iso_or_equiv
_atom_site_symmetry_multiplicity
_atom_site_Wyckoff_symbol
_atom_site_occupancy
Co1 Co 0.0 0.0 0.0 0.9 2 a 1.0
Ta2 Ta 0.0 0.0 0.3304 0.48 4 e 1.0
O3 O 0.3109 0.3109 0.0 0.48 4 f 1.0
O4 O 0.2967 0.2967 0.3255 0.92 8 j 1.0

