data_00-064-0856
# Copyright 2025 International Centre for Diffraction Data. All rights reserved.

_audit_creation_date                  2025-07-06
_audit_creation_method                'Generated by PDF-5+ 2025 4.25.0.2'

_chemical_name_systematic             'Manganese Thulium Germanium Oxide'
_chemical_formula_moiety              'Mn Tm2 Ge4 O12'
_chemical_formula_sum                 'Ge4 Mn O12 Tm2'
_chemical_formula_weight              875.31

_cell_length_a                        9.845987(35)
_cell_length_b                        9.845987(35)
_cell_length_c                        4.954494(23)
_cell_angle_alpha                     90.0
_cell_angle_beta                      90.0
_cell_angle_gamma                     90.0
_cell_formula_units_Z                 2
_cell_volume                          480.31
_symmetry_cell_setting                tetragonal
_symmetry_space_group_name_H-M        P4/nbm
_symmetry_Int_Tables_number           125

loop_
_symmetry_equiv_pos_site_id
_symmetry_equiv_pos_as_xyz
1 x,y,z
2 -x,-y,-z
3 -x,y+1/2,z
4 x,-y+1/2,-z
5 x+1/2,-y,z
6 -x+1/2,y,-z
7 -x+1/2,-y+1/2,z
8 x+1/2,y+1/2,-z
9 y,x,-z
10 -y,-x,z
11 -y,x+1/2,-z
12 y,-x+1/2,z
13 y+1/2,-x,-z
14 -y+1/2,x,z
15 -y+1/2,-x+1/2,-z
16 y+1/2,x+1/2,z

loop_
_atom_site_label
_atom_site_type_symbol
_atom_site_fract_x
_atom_site_fract_y
_atom_site_fract_z
_atom_site_U_iso_or_equiv
_atom_site_symmetry_multiplicity
_atom_site_Wyckoff_symbol
_atom_site_occupancy
Mn1 Mn 0.0 0.0 0.5 0.0323 . . 0.5
Tm2 Tm 0.0 0.0 0.5 0.0323 . . 0.5
Tm3 Tm 0.25 0.25 0.5 0.0267 . . 1.0
Ge4 Ge 0.97921 0.25 0.0 0.027 . . 1.0
O5 O 0.1305 0.8695 0.8345 0.0203 . . 1.0
O6 O 0.16851 0.06471 0.2571 0.02 . . 1.0

