data_00-061-0646
# Copyright 2025 International Centre for Diffraction Data. All rights reserved.

_audit_creation_date                  2025-07-04
_audit_creation_method                'Generated by PDF-5+ 2025 4.25.0.2'

_chemical_name_systematic             'Rubidium Copper Aqua Sulfate'
_chemical_name_common                 'dirubidium hexaaquacopper bis(sulfate)'
_chemical_formula_moiety              'Rb2 ( Cu ( H2 O )6 ) ( S O4 )2'
_chemical_formula_sum                 'Cu H12 O14 Rb2 S2'
_chemical_formula_weight              534.69

_cell_length_a                        9.25625(5)
_cell_length_b                        12.36268(6)
_cell_length_c                        6.22496(3)
_cell_angle_alpha                     90.0
_cell_angle_beta                      105.3090(4)
_cell_angle_gamma                     90.0
_cell_formula_units_Z                 2
_cell_volume                          687.06
_symmetry_cell_setting                monoclinic
_symmetry_space_group_name_H-M        P121/a1
_symmetry_Int_Tables_number           14

loop_
_symmetry_equiv_pos_site_id
_symmetry_equiv_pos_as_xyz
1 x,y,z
2 -x,-y,-z
3 -x+1/2,y+1/2,-z
4 x+1/2,-y+1/2,z

loop_
_atom_site_label
_atom_site_type_symbol
_atom_site_fract_x
_atom_site_fract_y
_atom_site_fract_z
_atom_site_U_iso_or_equiv
_atom_site_symmetry_multiplicity
_atom_site_Wyckoff_symbol
_atom_site_occupancy
Cu1 Cu 0.0 0.0 0.0 0.0166 . . 1.0
S2 S 0.3893 0.14 0.7288 0.0177 . . 1.0
O3 O 0.4031 0.2374 0.5962 0.0142 . . 1.0
O4 O 0.5256 0.0746 0.7627 0.0204 . . 1.0
O5 O 0.2607 0.0756 0.6011 0.0278 . . 1.0
O6 O 0.3636 0.1714 0.9427 0.0184 . . 1.0
O7 O 0.154 0.111 0.1601 0.0208 . . 1.0
O8 O -0.1874 0.1152 0.0274 0.0111 . . 1.0
Rb9 Rb 0.11827 0.35027 0.34744 0.0247 . . 1.0
O10 O -0.0012 -0.0642 0.2891 0.0116 . . 1.0
H11 H 0.226 0.086 0.296 0.04 . . 1.0
H12 H 0.208 0.143 0.067 0.04 . . 1.0
H13 H -0.283 0.107 -0.082 0.04 . . 1.0
H14 H -0.13 0.177 -0.005 0.04 . . 1.0
H15 H -0.076 -0.066 0.369 0.04 . . 1.0
H16 H 0.004 -0.1426 0.248 0.04 . . 1.0

