data_00-071-0106
# Copyright 2025 International Centre for Diffraction Data. All rights reserved.

_audit_creation_date                  2025-07-06
_audit_creation_method                'Generated by PDF-5+ 2025 4.25.0.2'

_chemical_name_systematic             'Yttrium Germanium Oxide'
_chemical_name_common                 'Yttrium germanium pentaoxide'
_chemical_formula_moiety              'Y2 Ge O5'
_chemical_formula_sum                 'Ge O5 Y2'
_chemical_formula_weight              330.44

_cell_length_a                        10.4706(2)
_cell_length_b                        6.82920(10)
_cell_length_c                        12.8795(2)
_cell_angle_alpha                     90.00000
_cell_angle_beta                      101.750(3)
_cell_angle_gamma                     90.00000
_cell_formula_units_Z                 8
_cell_volume                          901.66
_symmetry_cell_setting                monoclinic
_symmetry_space_group_name_H-M        I12/a1
_symmetry_Int_Tables_number           15

loop_
_symmetry_equiv_pos_site_id
_symmetry_equiv_pos_as_xyz
1 x,y,z
2 -x,-y,-z
3 x+1/2,-y,z
4 -x+1/2,y,-z
5 x+1/2,y+1/2,z+1/2
6 -x+1/2,-y+1/2,-z+1/2
7 x,-y+1/2,z+1/2
8 -x,y+1/2,-z+1/2

loop_
_atom_site_label
_atom_site_type_symbol
_atom_site_fract_x
_atom_site_fract_y
_atom_site_fract_z
_atom_site_U_iso_or_equiv
_atom_site_symmetry_multiplicity
_atom_site_Wyckoff_symbol
_atom_site_occupancy
Y1 Y 0.3011 0.6277 0.638 0.0096 . . 1.0
Y2 Y 0.0708 0.2567 0.5355 0.009 . . 1.0
Ge3 Ge 0.6236 0.5933 0.8155 0.0121 . . 1.0
O4 O 0.121 0.604 0.5178 0.009 . . 1.0
O5 O 0.295 0.298 0.6172 0.009 . . 1.0
O6 O 0.5212 0.654 0.6971 0.009 . . 1.0
O7 O 0.551 -0.006 0.4155 0.009 . . 1.0
O8 O 0.2412 0.572 0.7926 0.009 . . 1.0

