data_00-050-0215
# Copyright 2025 International Centre for Diffraction Data. All rights reserved.

_audit_creation_date                  2025-07-04
_audit_creation_method                'Generated by PDF-5+ 2025 4.25.0.2'

_chemical_name_systematic             'Potassium Calcium Manganese Phosphate'
_chemical_formula_moiety              'Ca9 Mn K ( P O4 )7'
_chemical_formula_sum                 'Ca9 K Mn O28 P7'
_chemical_formula_weight              1119.53

# Atomic parameters are cross-referenced from PDF entry 04-015-9633

_cell_length_a                        10.4179(2)
_cell_length_b                        10.4179(2)
_cell_length_c                        37.009(1)
_cell_angle_alpha                     90
_cell_angle_beta                      90
_cell_angle_gamma                     120
_cell_formula_units_Z                 6
_cell_volume                          3478.55
_symmetry_cell_setting                hexagonal
_symmetry_space_group_name_H-M        R3c
_symmetry_Int_Tables_number           161

loop_
_symmetry_equiv_pos_site_id
_symmetry_equiv_pos_as_xyz
1 x,y,z
2 -y,x-y,z
3 -x+y,-x,z
4 -y,-x,z+1/2
5 x,x-y,z+1/2
6 -x+y,y,z+1/2
7 x+2/3,y+1/3,z+1/3
8 -y+2/3,x-y+1/3,z+1/3
9 -x+y+2/3,-x+1/3,z+1/3
10 -y+2/3,-x+1/3,z+5/6
11 x+2/3,x-y+1/3,z+5/6
12 -x+y+2/3,y+1/3,z+5/6
13 x+1/3,y+2/3,z+2/3
14 -y+1/3,x-y+2/3,z+2/3
15 -x+y+1/3,-x+2/3,z+2/3
16 -y+1/3,-x+2/3,z+1/6
17 x+1/3,x-y+2/3,z+1/6
18 -x+y+1/3,y+2/3,z+1/6

loop_
_atom_site_label
_atom_site_type_symbol
_atom_site_fract_x
_atom_site_fract_y
_atom_site_fract_z
_atom_site_B_iso_or_equiv
_atom_site_symmetry_multiplicity
_atom_site_Wyckoff_symbol
_atom_site_occupancy
Ca1 Ca 0.7248 0.8561 0.4326 1.01 18 b 1.0
Ca2 Ca 0.6124 0.8206 0.2326 0.46 18 b 1.0
Ca3 Ca 0.1184 0.2649 0.3257 0.76 18 b 1.0
K4 K 0.0 0.0 0.1818 2.0 6 a 1.0
Mn5 Mn 0.0 0.0 0.0 0.42 6 a 1.0
P6 P 0.0 0.0 0.2685 1.7 6 a 1.0
P7 P 0.6865 0.8615 0.1349 0.7 18 b 1.0
P8 P 0.6581 0.8545 0.0311 0.7 18 b 1.0
O9 O 0.0 0.0 0.3082 0.17 6 a 1.0
O10 O 0.016 0.8688 0.2538 0.17 18 b 1.0
O11 O 0.7268 0.9207 0.1754 0.17 18 b 1.0
O12 O 0.7712 0.779 0.1252 0.17 18 b 1.0
O13 O 0.7287 0.0099 0.1134 0.17 18 b 1.0
O14 O 0.5147 0.7595 0.1348 0.17 18 b 1.0
O15 O 0.6044 0.9601 0.0446 0.17 18 b 1.0
O16 O 0.5741 0.6983 0.0517 0.17 18 b 1.0
O17 O 0.8229 0.9213 0.044 0.17 18 b 1.0
O18 O 0.625 0.8194 0.9938 0.17 18 b 1.0

