data_00-061-0051
# Copyright 2025 International Centre for Diffraction Data. All rights reserved.

_audit_creation_date                  2025-07-04
_audit_creation_method                'Generated by PDF-5+ 2025 4.25.0.2'

_chemical_name_systematic             'Manganese Zinc Indium Sulfide'
_chemical_formula_moiety              'Mn0.4 Zn0.6 In2 S4'
_chemical_formula_sum                 'In2 Mn0.4 S4 Zn0.6'
_chemical_formula_weight              419.10

_cell_length_a                        3.875218(8)
_cell_length_b                        3.875218(8)
_cell_length_c                        37.20846(11)
_cell_angle_alpha                     90.0
_cell_angle_beta                      90.0
_cell_angle_gamma                     120.0
_cell_formula_units_Z                 3
_cell_volume                          483.91
_symmetry_cell_setting                hexagonal
_symmetry_space_group_name_H-M        R3mH
_symmetry_Int_Tables_number           160

loop_
_symmetry_equiv_pos_site_id
_symmetry_equiv_pos_as_xyz
1 x,y,z
2 -y,x-y,z
3 -x+y,-x,z
4 -y,-x,z
5 x,x-y,z
6 -x+y,y,z
7 x+2/3,y+1/3,z+1/3
8 -y+2/3,x-y+1/3,z+1/3
9 -x+y+2/3,-x+1/3,z+1/3
10 -y+2/3,-x+1/3,z+1/3
11 x+2/3,x-y+1/3,z+1/3
12 -x+y+2/3,y+1/3,z+1/3
13 x+1/3,y+2/3,z+2/3
14 -y+1/3,x-y+2/3,z+2/3
15 -x+y+1/3,-x+2/3,z+2/3
16 -y+1/3,-x+2/3,z+2/3
17 x+1/3,x-y+2/3,z+2/3
18 -x+y+1/3,y+2/3,z+2/3

loop_
_atom_site_label
_atom_site_type_symbol
_atom_site_fract_x
_atom_site_fract_y
_atom_site_fract_z
_atom_site_U_iso_or_equiv
_atom_site_symmetry_multiplicity
_atom_site_Wyckoff_symbol
_atom_site_occupancy
Mn1 Mn 0.0 0.0 0.39596 0.01312 . . 0.2
Zn2 Zn 0.0 0.0 0.39596 0.01312 . . 0.4
In3 In 0.0 0.0 0.39596 0.01312 . . 0.4
Mn4 Mn 0.0 0.0 0.16463 0.01312 . . 0.2
Zn5 Zn 0.0 0.0 0.16463 0.01312 . . 0.2
In6 In 0.0 0.0 0.16463 0.01312 . . 0.6
In7 In 0.0 0.0 0.93304 0.01312 . . 1.0
S8 S 0.0 0.0 0.04013 0.0112 . . 1.0
S9 S 0.0 0.0 0.29173 0.0112 . . 1.0
S10 S 0.0 0.0 0.46154 0.0112 . . 1.0
S11 S 0.0 0.0 0.867 0.0112 . . 1.0

