data_00-071-0802
# Copyright 2025 International Centre for Diffraction Data. All rights reserved.

_audit_creation_date                  2025-07-06
_audit_creation_method                'Generated by PDF-5+ 2025 4.25.0.2'

_chemical_name_systematic             'Potassium Tantalum Fluoride'
_chemical_name_common                 'tripotassium octafluorotantalate'
_chemical_formula_moiety              'K3 Ta F8'
_chemical_formula_sum                 'F8 K3 Ta'
_chemical_formula_weight              450.23

_cell_length_a                        8.2533(4)
_cell_length_b                        8.2533(4)
_cell_length_c                        6.3196(4)
_cell_angle_alpha                     90
_cell_angle_beta                      90
_cell_angle_gamma                     120
_cell_formula_units_Z                 2
_cell_volume                          372.80
_symmetry_cell_setting                hexagonal
_symmetry_space_group_name_H-M        P63mc
_symmetry_Int_Tables_number           186

loop_
_symmetry_equiv_pos_site_id
_symmetry_equiv_pos_as_xyz
1 x,y,z
2 -y,x-y,z
3 -x+y,-x,z
4 -y,-x,z
5 x,x-y,z
6 -x+y,y,z
7 -x,-y,z+1/2
8 y,-x+y,z+1/2
9 x-y,x,z+1/2
10 y,x,z+1/2
11 -x,-x+y,z+1/2
12 x-y,-y,z+1/2

loop_
_atom_site_label
_atom_site_type_symbol
_atom_site_fract_x
_atom_site_fract_y
_atom_site_fract_z
_atom_site_U_iso_or_equiv
_atom_site_symmetry_multiplicity
_atom_site_Wyckoff_symbol
_atom_site_occupancy
Ta1 Ta 0.33333 0.66667 0.7407 0.08 . . 1.0
K2 K 0.1547 0.3094 0.2431 0.09 . . 1.0
F3 F 0.0 0.0 0.0022 0.091 . . 1.0
F4 F 0.439 0.561 0.5344 0.091 . . 1.0
F5 F 0.33333 0.66667 1.0547 0.091 . . 1.0
F6 F 0.2003 0.7997 0.8185 0.091 . . 1.0

