data_00-062-0875
# Copyright 2025 International Centre for Diffraction Data. All rights reserved.

_audit_creation_date                  2025-07-06
_audit_creation_method                'Generated by PDF-5+ 2025 4.25.0.2'

_chemical_name_systematic             'Aluminum Phosphate'
_chemical_formula_moiety              'Al P O4'
_chemical_formula_sum                 'Al O4 P'
_chemical_formula_weight              121.95

_cell_length_a                        14.7696(6)
_cell_length_b                        27.6372(11)
_cell_length_c                        8.35796(22)
_cell_angle_alpha                     90.0
_cell_angle_beta                      90.0
_cell_angle_gamma                     90.0
_cell_formula_units_Z                 32
_cell_volume                          3411.64
_symmetry_cell_setting                orthorhombic
_symmetry_space_group_name_H-M        Iba2
_symmetry_Int_Tables_number           45

loop_
_symmetry_equiv_pos_site_id
_symmetry_equiv_pos_as_xyz
1 x,y,z
2 -x,-y,z
3 -x+1/2,y+1/2,z
4 x+1/2,-y+1/2,z
5 x+1/2,y+1/2,z+1/2
6 -x+1/2,-y+1/2,z+1/2
7 -x,y,z+1/2
8 x,-y,z+1/2

loop_
_atom_site_label
_atom_site_type_symbol
_atom_site_fract_x
_atom_site_fract_y
_atom_site_fract_z
_atom_site_U_iso_or_equiv
_atom_site_symmetry_multiplicity
_atom_site_Wyckoff_symbol
_atom_site_occupancy
P1 P 0.9001 0.7795 0.0397 0.0146 . . 1.0
P2 P 0.9052 0.6719 0.5384 0.0146 . . 1.0
P3 P 0.7215 0.6394 0.0292 0.0146 . . 1.0
P4 P 0.3984 0.555 0.0255 0.0146 . . 1.0
Al5 Al 0.907 0.7783 0.6646 0.0146 . . 1.0
Al6 Al 0.8991 0.6743 0.1608 0.0146 . . 1.0
Al7 Al 0.5967 0.5546 0.1442 0.0146 . . 1.0
Al8 Al 0.2729 0.6375 0.1548 0.0146 . . 1.0
O9 O 0.8758 0.7332 0.1237 0.0394 . . 1.0
O10 O 0.9887 0.7979 0.104 0.0394 . . 1.0
O11 O 0.8244 0.815 0.0611 0.0394 . . 1.0
O12 O 0.9077 0.7699 0.8651 0.0394 . . 1.0
O13 O 0.8846 0.7231 0.5805 0.0394 . . 1.0
O14 O 0.8394 0.6363 0.6096 0.0394 . . 1.0
O15 O 0.8985 0.667 0.3616 0.0394 . . 1.0
O16 O 0.0014 0.6572 0.0878 0.0394 . . 1.0
O17 O 0.819 0.6373 0.0795 0.0394 . . 1.0
O18 O 0.6736 0.6808 0.111 0.0394 . . 1.0
O19 O 0.714 0.6467 0.8536 0.0394 . . 1.0
O20 O 0.6791 0.5919 0.0714 0.0394 . . 1.0
O21 O 0.4902 0.5722 0.0848 0.0394 . . 1.0
O22 O 0.3827 0.5033 0.0802 0.0394 . . 1.0
O23 O 0.3228 0.5857 0.0916 0.0394 . . 1.0
O24 O 0.3955 0.5566 0.8473 0.0394 . . 1.0

