data_00-049-0504
# Copyright 2025 International Centre for Diffraction Data. All rights reserved.

_audit_creation_date                  2025-07-04
_audit_creation_method                'Generated by PDF-5+ 2025 4.25.0.2'

_chemical_name_systematic             'Potassium Europium Phosphate'
_chemical_formula_moiety              'K3 Eu ( P O4 )2'
_chemical_formula_sum                 'Eu K3 O8 P2'
_chemical_formula_weight              459.20

# Atomic parameters are cross-referenced from PDF entry 04-016-1339

_cell_length_a                        9.4550(1)
_cell_length_b                        5.6229(1)
_cell_length_c                        7.4185(1)
_cell_angle_alpha                     90
_cell_angle_beta                      90.867(1)
_cell_angle_gamma                     90
_cell_formula_units_Z                 2
_cell_volume                          394.36
_symmetry_cell_setting                monoclinic
_symmetry_space_group_name_H-M        P21/m
_symmetry_Int_Tables_number           11

loop_
_symmetry_equiv_pos_site_id
_symmetry_equiv_pos_as_xyz
1 x,y,z
2 -x,-y,-z
3 -x,y+1/2,-z
4 x,-y+1/2,z

loop_
_atom_site_label
_atom_site_type_symbol
_atom_site_fract_x
_atom_site_fract_y
_atom_site_fract_z
_atom_site_B_iso_or_equiv
_atom_site_symmetry_multiplicity
_atom_site_Wyckoff_symbol
_atom_site_occupancy
K1 K 0.3093 0.25 0.4945 1.07 2 e 1.0
K2 K 0.5812 0.25 0.2051 1.0 2 e 1.0
P3 P 0.9264 0.25 0.1905 1.18 2 e 1.0
O4 O 0.9496 0.25 0.9868 0.3 2 e 1.0
O5 O 0.0763 0.25 0.287 0.3 2 e 1.0
O6 O 0.1562 0.523 0.7542 0.3 4 f 1.0
K7 K 0.9087 0.25 0.6354 1.16 2 e 1.0
Eu8 Eu 0.209 0.25 0.9933 0.24 2 e 1.0
P9 P 0.5884 0.25 0.7701 0.86 2 e 1.0
O10 O 0.6022 0.25 0.5629 0.27 2 e 1.0
O11 O 0.4326 0.25 0.8261 0.27 2 e 1.0
O12 O 0.3375 0.5271 0.1542 0.27 4 f 1.0

