data_00-061-0379
# Copyright 2025 International Centre for Diffraction Data. All rights reserved.

_audit_creation_date                  2025-07-04
_audit_creation_method                'Generated by PDF-5+ 2025 4.25.0.2'

_chemical_name_systematic             'Calcium Silicate'
_chemical_name_common                 '\c-Ca2 Si O4, C2S, dicalcium silicate'
_chemical_formula_moiety              'Ca2 Si O4'
_chemical_formula_sum                 'Ca2 O4 Si'
_chemical_formula_weight              172.24

_cell_length_a                        8.2127(5)
_cell_length_b                        9.7930(4)
_cell_length_c                        9.7954(5)
_cell_angle_alpha                     90.0
_cell_angle_beta                      94.848(5)
_cell_angle_gamma                     90.0
_cell_formula_units_Z                 8
_cell_volume                          785.00
_symmetry_cell_setting                monoclinic
_symmetry_space_group_name_H-M        P121/c1
_symmetry_Int_Tables_number           14

loop_
_symmetry_equiv_pos_site_id
_symmetry_equiv_pos_as_xyz
1 x,y,z
2 -x,-y,-z
3 -x,y+1/2,-z+1/2
4 x,-y+1/2,z+1/2

loop_
_atom_site_label
_atom_site_type_symbol
_atom_site_fract_x
_atom_site_fract_y
_atom_site_fract_z
_atom_site_U_iso_or_equiv
_atom_site_symmetry_multiplicity
_atom_site_Wyckoff_symbol
_atom_site_occupancy
Ca1 Ca 0.8258 0.421 0.0729 0.016 . . 1.0
Ca2 Ca 0.6621 0.4181 0.4121 0.016 . . 1.0
Ca3 Ca 0.376 0.2889 0.0816 0.016 . . 1.0
Ca4 Ca 0.9081 0.0681 0.2068 0.016 . . 1.0
Si5 Si 0.0221 0.2959 0.4326 0.0137 . . 1.0
Si6 Si 0.4618 0.5757 0.2026 0.0137 . . 1.0
O7 O 0.8768 0.2993 0.5287 0.0175 . . 1.0
O8 O 0.9625 0.3647 0.2856 0.0175 . . 1.0
O9 O 0.0641 0.135 0.4077 0.0175 . . 1.0
O10 O 0.1831 0.3873 0.5038 0.0175 . . 1.0
O11 O 0.5894 0.4557 0.1682 0.0175 . . 1.0
O12 O 0.2903 0.5091 0.1502 0.0175 . . 1.0
O13 O 0.4982 0.713 0.1283 0.0175 . . 1.0
O14 O 0.4557 0.5955 0.3702 0.0175 . . 1.0

