data_00-061-0218
# Copyright 2025 International Centre for Diffraction Data. All rights reserved.

_audit_creation_date                  2025-07-04
_audit_creation_method                'Generated by PDF-5+ 2025 4.25.0.2'

_chemical_name_systematic             'Barium Calcium Antimony Oxide'
_chemical_formula_moiety              'Ba3 Ca Sb2 O9'
_chemical_formula_sum                 'Ba3 Ca O9 Sb2'
_chemical_formula_weight              839.57

_cell_length_a                        5.99898(7)
_cell_length_b                        10.37797(19)
_cell_length_c                        14.8658(3)
_cell_angle_alpha                     90.0
_cell_angle_beta                      91.384(2)
_cell_angle_gamma                     90.0
_cell_formula_units_Z                 4
_cell_volume                          925.23
_symmetry_cell_setting                monoclinic
_symmetry_space_group_name_H-M        C12/c1
_symmetry_Int_Tables_number           15

loop_
_symmetry_equiv_pos_site_id
_symmetry_equiv_pos_as_xyz
1 x,y,z
2 -x,-y,-z
3 -x,y,-z+1/2
4 x,-y,z+1/2
5 x+1/2,y+1/2,z
6 -x+1/2,-y+1/2,-z
7 -x+1/2,y+1/2,-z+1/2
8 x+1/2,-y+1/2,z+1/2

loop_
_atom_site_label
_atom_site_type_symbol
_atom_site_fract_x
_atom_site_fract_y
_atom_site_fract_z
_atom_site_U_iso_or_equiv
_atom_site_symmetry_multiplicity
_atom_site_Wyckoff_symbol
_atom_site_occupancy
Ba1 Ba 0.0 -0.0031 0.25 0.008 . . 1.0
Ba2 Ba 0.0095 0.3327 0.09303 0.0221 . . 1.0
Ca3 Ca 0.0 0.0 0.0 0.016 . . 1.0
Sb4 Sb -0.0124 0.337 0.84609 0.016 . . 1.0
O5 O 0.0 0.511 0.25 0.013 . . 1.0
O6 O 0.3 0.236 0.2415 0.013 . . 1.0
O7 O 0.031 0.809 0.0875 0.013 . . 1.0
O8 O 0.323 0.0646 0.0777 0.013 . . 1.0
O9 O 0.768 0.074 0.1008 0.013 . . 1.0

