data_00-052-0253
# Copyright 2025 International Centre for Diffraction Data. All rights reserved.

_audit_creation_date                  2025-07-04
_audit_creation_method                'Generated by PDF-5+ 2025 4.25.0.2'

_chemical_name_systematic             'Sodium Strontium Bismuth Oxide'
_chemical_formula_moiety              'Na2.9 Sr3.1 Bi3 O12'
_chemical_formula_sum                 'Bi3 Na2.9 O12 Sr3.1'
_chemical_formula_weight              1157.22

# Atomic parameters are cross-referenced from PDF entry 04-009-2082

_cell_length_a                        10.1102(4)
_cell_length_b                        10.1102(4)
_cell_length_c                        3.3389(1)
_cell_angle_alpha                     90
_cell_angle_beta                      90
_cell_angle_gamma                     120
_cell_formula_units_Z                 1
_cell_volume                          295.57
_symmetry_cell_setting                hexagonal
_symmetry_space_group_name_H-M        P-62m
_symmetry_Int_Tables_number           189

loop_
_symmetry_equiv_pos_site_id
_symmetry_equiv_pos_as_xyz
1 x,y,z
2 -y,x-y,z
3 -x+y,-x,z
4 x,y,-z
5 -y,x-y,-z
6 -x+y,-x,-z
7 y,x,z
8 -x,-x+y,z
9 x-y,-y,z
10 y,x,-z
11 -x,-x+y,-z
12 x-y,-y,-z

loop_
_atom_site_label
_atom_site_type_symbol
_atom_site_fract_x
_atom_site_fract_y
_atom_site_fract_z
_atom_site_B_iso_or_equiv
_atom_site_symmetry_multiplicity
_atom_site_Wyckoff_symbol
_atom_site_occupancy
Na1 Na 0.0 0.0 0.0 0.4 1 a 0.95
Na2 Na 0.66666 0.33333 0.5 0.9 2 d 0.15
O3 O 0.453 0.235 0.0 0.7 6 j 1.0
Sr4 Sr 0.66666 0.33333 0.5 0.9 2 d 0.85
Sr5 Sr 0.6942 0.0 0.5 1.3 3 g 0.45
Bi6 Bi 0.0 0.3317 0.0 0.58 3 f 1.0
Sr7 Sr 0.0 0.0 0.0 0.4 1 a 0.05
Na8 Na 0.6942 0.0 0.5 1.3 3 g 0.55
O9 O 0.188 0.0 0.5 0.7 3 g 1.0
O10 O 0.443 0.0 0.5 0.7 3 g 1.0

