data_00-053-0355
# Copyright 2025 International Centre for Diffraction Data. All rights reserved.

_audit_creation_date                  2025-07-04
_audit_creation_method                'Generated by PDF-5+ 2025 4.25.0.2'

_chemical_name_systematic             'Sodium Nickel Iron Phosphate'
_chemical_formula_moiety              'Na2 Ni2 Fe ( P O4 )3'
_chemical_formula_sum                 'Fe Na2 Ni2 O12 P3'
_chemical_formula_weight              504.12

# Atomic parameters are cross-referenced from PDF entry 04-022-2634

_cell_length_a                        10.42821(12)
_cell_length_b                        13.19862(15)
_cell_length_c                        6.47634(8)
_cell_angle_alpha                     90
_cell_angle_beta                      90
_cell_angle_gamma                     90
_cell_formula_units_Z                 4
_cell_volume                          891.39
_symmetry_cell_setting                orthorhombic
_symmetry_space_group_name_H-M        Imma
_symmetry_Int_Tables_number           74

loop_
_symmetry_equiv_pos_site_id
_symmetry_equiv_pos_as_xyz
1 x,y,z
2 -x,-y,-z
3 x,-y,-z
4 -x,y,z
5 x,y+1/2,-z
6 -x,-y+1/2,z
7 x,-y+1/2,z
8 -x,y+1/2,-z
9 x+1/2,y+1/2,z+1/2
10 -x+1/2,-y+1/2,-z+1/2
11 x+1/2,-y+1/2,-z+1/2
12 -x+1/2,y+1/2,z+1/2
13 x+1/2,y,-z+1/2
14 -x+1/2,-y,z+1/2
15 x+1/2,-y,z+1/2
16 -x+1/2,y,-z+1/2

loop_
_atom_site_label
_atom_site_type_symbol
_atom_site_fract_x
_atom_site_fract_y
_atom_site_fract_z
_atom_site_U_iso_or_equiv
_atom_site_symmetry_multiplicity
_atom_site_Wyckoff_symbol
_atom_site_occupancy
Na1 Na 0.0 0.75 0.6119 0.094 4 e 1.0
Na2 Na 0.0 0.5 0.5 0.094 4 b 1.0
Ni3 Ni 0.25 0.63617 0.25 0.0035 8 g 0.75
Fe4 Fe 0.25 0.63617 0.25 0.0035 8 g 0.25
Fe5 Fe 0.5 0.5 0.5 0.0035 4 a 0.5
Ni6 Ni 0.5 0.5 0.5 0.0035 4 a 0.5
P7 P 0.25 0.4288 0.25 0.007 8 g 1.0
P8 P 0.0 0.75 0.0831 0.007 4 e 1.0
O9 O 0.2881 0.366 0.0661 0.0018 16 j 1.0
O10 O 0.1403 0.5066 0.2117 0.0018 16 j 1.0
O11 O 0.0 0.6538 0.9525 0.0018 8 h 1.0
O12 O 0.1202 0.75 0.228 0.0018 8 i 1.0

