data_00-064-0843
# Copyright 2025 International Centre for Diffraction Data. All rights reserved.

_audit_creation_date                  2025-07-06
_audit_creation_method                'Generated by PDF-5+ 2025 4.25.0.2'

_chemical_name_systematic             'Cesium Copper Silicate'
_chemical_formula_moiety              'Cs2 Cu Si5 O12'
_chemical_formula_sum                 'Cs2 Cu O12 Si5'
_chemical_formula_weight              661.77

_cell_length_a                        13.58943(6)
_cell_length_b                        13.57355(5)
_cell_length_c                        13.62296(4)
_cell_angle_alpha                     90.0
_cell_angle_beta                      90.0
_cell_angle_gamma                     90.0
_cell_formula_units_Z                 8
_cell_volume                          2512.85
_symmetry_cell_setting                orthorhombic
_symmetry_space_group_name_H-M        Pbca
_symmetry_Int_Tables_number           61

loop_
_symmetry_equiv_pos_site_id
_symmetry_equiv_pos_as_xyz
1 x,y,z
2 -x,-y,-z
3 x+1/2,-y+1/2,-z
4 -x+1/2,y+1/2,z
5 -x,y+1/2,-z+1/2
6 x,-y+1/2,z+1/2
7 -x+1/2,-y,z+1/2
8 x+1/2,y,-z+1/2

loop_
_atom_site_label
_atom_site_type_symbol
_atom_site_fract_x
_atom_site_fract_y
_atom_site_fract_z
_atom_site_U_iso_or_equiv
_atom_site_symmetry_multiplicity
_atom_site_Wyckoff_symbol
_atom_site_occupancy
Cs1 Cs 0.1304 0.12954 0.14644 0.0127 . . 1.0
Cs2 Cs 0.3753 0.38635 0.3849 0.0335 . . 1.0
Cu3 Cu 0.3804 0.83732 0.93011 0.012 . . 1.0
Si4 Si 0.1293 0.6742 0.5933 0.0212 . . 1.0
Si5 Si 0.5836 0.1213 0.6341 0.0212 . . 1.0
Si6 Si 0.6606 0.5915 0.1106 0.0212 . . 1.0
Si7 Si 0.906 0.3788 0.8206 0.0212 . . 1.0
Si8 Si 0.8371 0.9088 0.3482 0.0212 . . 1.0
O9 O 0.4687 0.3522 0.1524 0.018 . . 1.0
O10 O 0.1032 0.4874 0.4098 0.018 . . 1.0
O11 O 0.3769 0.1611 0.476 0.018 . . 1.0
O12 O 0.7215 0.422 0.6241 0.018 . . 1.0
O13 O 0.6458 0.709 0.3842 0.018 . . 1.0
O14 O 0.3881 0.6268 0.754 0.018 . . 1.0
O15 O 0.9799 0.8952 0.6515 0.018 . . 1.0
O16 O 0.6596 0.9729 0.8532 0.018 . . 1.0
O17 O 0.9077 0.643 0.9315 0.018 . . 1.0
O18 O 0.2225 0.8818 0.1404 0.018 . . 1.0
O19 O 0.1293 0.2013 0.936 0.018 . . 1.0
O20 O 0.8927 0.1427 0.2025 0.018 . . 1.0

