data_00-064-0358
# Copyright 2025 International Centre for Diffraction Data. All rights reserved.

_audit_creation_date                  2025-07-06
_audit_creation_method                'Generated by PDF-5+ 2025 4.25.0.2'

_chemical_name_systematic             'Lithium Sodium Iron Phosphate Fluoride'
_chemical_formula_moiety              'Li Na Fe ( P O4 ) F'
_chemical_formula_sum                 'F Fe Li Na O4 P'
_chemical_formula_weight              199.74

_cell_length_a                        10.9851(4)
_cell_length_b                        6.3686(3)
_cell_length_c                        11.4343(4)
_cell_angle_alpha                     90.0
_cell_angle_beta                      90.0
_cell_angle_gamma                     90.0
_cell_formula_units_Z                 8
_cell_volume                          797.18
_symmetry_cell_setting                orthorhombic
_symmetry_space_group_name_H-M        Pnma
_symmetry_Int_Tables_number           62

loop_
_symmetry_equiv_pos_site_id
_symmetry_equiv_pos_as_xyz
1 x,y,z
2 -x,-y,-z
3 x+1/2,-y+1/2,-z+1/2
4 -x+1/2,y+1/2,z+1/2
5 -x,y+1/2,-z
6 x,-y+1/2,z
7 -x+1/2,-y,z+1/2
8 x+1/2,y,-z+1/2

loop_
_atom_site_label
_atom_site_type_symbol
_atom_site_fract_x
_atom_site_fract_y
_atom_site_fract_z
_atom_site_U_iso_or_equiv
_atom_site_symmetry_multiplicity
_atom_site_Wyckoff_symbol
_atom_site_occupancy
Na1 Na 0.2273 0.018 0.3463 0.021 . . 1.0
Li2 Li 0.286 0.25 0.551 0.021 . . 1.0
Li3 Li 0.444 0.25 0.212 0.021 . . 1.0
Fe4 Fe 0.0 0.0 0.0 0.013 . . 1.0
Fe5 Fe 0.0 0.0 0.5 0.0023 . . 1.0
P6 P 0.0328 0.25 0.7384 0.03 . . 1.0
P7 P 0.2501 0.25 0.0704 0.034 . . 1.0
O8 O 0.1798 0.0527 0.0375 0.014 . . 1.0
O9 O 0.2662 0.25 0.2099 0.039 . . 1.0
O10 O 0.1756 0.25 0.7397 0.056 . . 1.0
O11 O 0.3743 0.25 0.0171 0.006 . . 1.0
O12 O 0.4942 0.25 0.6317 0.021 . . 1.0
O13 O 0.0034 0.5482 0.318 0.0023 . . 1.0
F14 F 0.1316 0.25 0.4668 0.026 . . 1.0
F15 F 0.4345 0.25 0.3987 0.006 . . 1.0

