data_00-059-0768
# Copyright 2025 International Centre for Diffraction Data. All rights reserved.

_audit_creation_date                  2025-07-04
_audit_creation_method                'Generated by PDF-5+ 2025 4.25.0.2'

_chemical_name_systematic             'Barium Gadolinium Silicate'
_chemical_formula_moiety              'Ba Gd2 Si3 O10'
_chemical_formula_sum                 'Ba Gd2 O10 Si3'
_chemical_formula_weight              696.08

# Atomic parameters are cross-referenced from PDF entry 04-017-9227

_cell_length_a                        5.435(1)
_cell_length_b                        12.241(2)
_cell_length_c                        6.932(1)
_cell_angle_alpha                     90
_cell_angle_beta                      106.26(3)
_cell_angle_gamma                     90
_cell_formula_units_Z                 2
_cell_volume                          442.74
_symmetry_cell_setting                monoclinic
_symmetry_space_group_name_H-M        P21/m
_symmetry_Int_Tables_number           11

loop_
_symmetry_equiv_pos_site_id
_symmetry_equiv_pos_as_xyz
1 x,y,z
2 -x,-y,-z
3 -x,y+1/2,-z
4 x,-y+1/2,z

loop_
_atom_site_label
_atom_site_type_symbol
_atom_site_fract_x
_atom_site_fract_y
_atom_site_fract_z
_atom_site_U_iso_or_equiv
_atom_site_symmetry_multiplicity
_atom_site_Wyckoff_symbol
_atom_site_occupancy
Ba1 Ba 0.76309 0.25 0.0195 0.01043 2 e 1.0
Gd2 Gd 0.16111 0.097282 0.68786 0.0071 4 f 1.0
Si3 Si 0.5857 0.25 0.49058 0.00606 2 e 1.0
Si4 Si 0.30424 0.0648 0.21522 0.00634 4 f 1.0
O5 O 0.3802 0.25 0.6184 0.00839 2 e 1.0
O6 O 0.8778 0.25 0.6341 0.00716 2 e 1.0
O7 O 0.5502 0.1427 0.3423 0.01141 4 f 1.0
O8 O 0.4235 -0.0528 0.1889 0.01229 4 f 1.0
O9 O 0.1715 0.1272 0.0083 0.0119 4 f 1.0
O10 O 0.0993 0.0557 0.3489 0.01028 4 f 1.0

loop_
_atom_site_aniso_label
_atom_site_aniso_U_11
_atom_site_aniso_U_12
_atom_site_aniso_U_13
_atom_site_aniso_U_22
_atom_site_aniso_U_23
_atom_site_aniso_U_33
Ba1 0.01082 0.0 0.00353 0.01265 0.0 0.00833
Gd2 0.00864 -0.00145 0.00171 0.00756 -7.2E-4 0.00498
Si3 0.0053 0.0 0.0015 0.0089 0.0 0.0041
Si4 0.0072 6.0E-4 0.0018 0.0073 4.0E-4 0.0046
O5 0.0087 0.0 0.0044 0.0069 0.0 0.0106
O6 0.004 0.0 -0.0028 0.0073 0.0 0.0075
O7 0.0086 -0.0029 0.0034 0.0148 -0.0055 0.0112
O8 0.0123 0.0031 0.0019 0.0097 -9.0E-4 0.0138
O9 0.0149 0.0042 0.0033 0.0148 0.0015 0.0062
O10 0.0099 -0.0037 0.0038 0.0146 -0.0027 0.0072

