data_00-071-0803
# Copyright 2025 International Centre for Diffraction Data. All rights reserved.

_audit_creation_date                  2025-07-06
_audit_creation_method                'Generated by PDF-5+ 2025 4.25.0.2'

_chemical_name_systematic             'Europium iodide'
_chemical_name_common                 'europium(II) diiodide'
_chemical_formula_moiety              'Eu I2'
_chemical_formula_sum                 'Eu I2'
_chemical_formula_weight              405.77
_chemical_melting_point               673.0

_cell_length_a                        12.2665(11)
_cell_length_b                        4.8875(4)
_cell_length_c                        8.3697(8)
_cell_angle_alpha                     90.0000
_cell_angle_beta                      90.0000
_cell_angle_gamma                     90.0000
_cell_formula_units_Z                 4
_cell_volume                          501.78
_symmetry_cell_setting                orthorhombic
_symmetry_space_group_name_H-M        Pnma
_symmetry_Int_Tables_number           62

loop_
_symmetry_equiv_pos_site_id
_symmetry_equiv_pos_as_xyz
1 x,y,z
2 -x,-y,-z
3 x+1/2,-y+1/2,-z+1/2
4 -x+1/2,y+1/2,z+1/2
5 -x,y+1/2,-z
6 x,-y+1/2,z
7 -x+1/2,-y,z+1/2
8 x+1/2,y,-z+1/2

loop_
_atom_site_label
_atom_site_type_symbol
_atom_site_fract_x
_atom_site_fract_y
_atom_site_fract_z
_atom_site_U_iso_or_equiv
_atom_site_symmetry_multiplicity
_atom_site_Wyckoff_symbol
_atom_site_occupancy
Eu1 Eu 0.3287 0.75 0.631 0.0309 . . 1.0
I2 I 0.3883 0.25 0.366 . . . 1.0
I3 I 0.3852 0.25 0.879 0.007 . . 1.0

