data_00-051-0136
# Copyright 2025 International Centre for Diffraction Data. All rights reserved.

_audit_creation_date                  2025-07-04
_audit_creation_method                'Generated by PDF-5+ 2025 4.25.0.2'

_chemical_name_systematic             'Barium Iron Niobium Oxide Silicate'
_chemical_formula_moiety              'Ba3 Nb Fe3 Si2 O14'
_chemical_formula_sum                 'Ba3 Fe3 Nb O14 Si2'
_chemical_formula_weight              952.58

# Atomic parameters are cross-referenced from PDF entry 04-015-8612

_cell_length_a                        8.539(1)
_cell_length_b                        8.539(1)
_cell_length_c                        5.2414(1)
_cell_angle_alpha                     90
_cell_angle_beta                      90
_cell_angle_gamma                     120
_cell_formula_units_Z                 1
_cell_volume                          330.97
_symmetry_cell_setting                hexagonal
_symmetry_space_group_name_H-M        P321
_symmetry_Int_Tables_number           150

loop_
_symmetry_equiv_pos_site_id
_symmetry_equiv_pos_as_xyz
1 x,y,z
2 -y,x-y,z
3 -x+y,-x,z
4 y,x,-z
5 -x,-x+y,-z
6 x-y,-y,-z

loop_
_atom_site_label
_atom_site_type_symbol
_atom_site_fract_x
_atom_site_fract_y
_atom_site_fract_z
_atom_site_U_iso_or_equiv
_atom_site_symmetry_multiplicity
_atom_site_Wyckoff_symbol
_atom_site_occupancy
Ba1 Ba 0.56598 0.0 0.0 0.00859 3 e 1.0
Nb2 Nb 0.0 0.0 0.0 0.00766 1 a 1.0
Fe3 Fe 0.24964 0.0 0.5 0.00776 3 f 1.0
Si4 Si 0.66666 0.33333 0.522 0.0063 2 d 1.0
O5 O 0.66666 0.33333 0.2162 0.0106 2 d 1.0
O6 O 0.5259 0.7024 0.3536 0.0118 6 g 1.0
O7 O 0.784 0.9002 0.776 0.0164 6 g 1.0

