data_00-063-0781
# Copyright 2025 International Centre for Diffraction Data. All rights reserved.

_audit_creation_date                  2025-07-06
_audit_creation_method                'Generated by PDF-5+ 2025 4.25.0.2'

_chemical_name_systematic             'Lanthanum Tantalum Oxide'
_chemical_formula_moiety              'La Ta O4'
_chemical_formula_sum                 'La O4 Ta'
_chemical_formula_weight              383.85

_cell_length_a                        7.82857(8)
_cell_length_b                        11.21789(12)
_cell_length_c                        7.46427(8)
_cell_angle_alpha                     90.0
_cell_angle_beta                      90.0
_cell_angle_gamma                     90.0
_cell_formula_units_Z                 8
_cell_volume                          655.51
_symmetry_cell_setting                orthorhombic
_symmetry_space_group_name_H-M        Pbca
_symmetry_Int_Tables_number           61

loop_
_symmetry_equiv_pos_site_id
_symmetry_equiv_pos_as_xyz
1 x,y,z
2 -x,-y,-z
3 x+1/2,-y+1/2,-z
4 -x+1/2,y+1/2,z
5 -x,y+1/2,-z+1/2
6 x,-y+1/2,z+1/2
7 -x+1/2,-y,z+1/2
8 x+1/2,y,-z+1/2

loop_
_atom_site_label
_atom_site_type_symbol
_atom_site_fract_x
_atom_site_fract_y
_atom_site_fract_z
_atom_site_U_iso_or_equiv
_atom_site_symmetry_multiplicity
_atom_site_Wyckoff_symbol
_atom_site_occupancy
La1 La 0.87278 0.02404 0.74334 0.03691 . . 1.0
Ta2 Ta 0.63065 0.24247 0.49699 0.02679 . . 1.0
O3 O 0.6592 0.3094 0.7706 0.0123 . . 1.0
O4 O 0.6085 0.4122 0.4647 0.0123 . . 1.0
O5 O 0.8843 0.2667 0.473 0.0123 . . 1.0
O6 O 0.4015 0.5718 0.9013 0.0123 . . 1.0

