data_00-051-0130
# Copyright 2025 International Centre for Diffraction Data. All rights reserved.

_audit_creation_date                  2025-07-04
_audit_creation_method                'Generated by PDF-5+ 2025 4.25.0.2'

_chemical_name_systematic             'Cobalt Vanadium Oxide'
_chemical_name_common                 '\b-Co V2 O6'
_chemical_formula_moiety              'Co V2 O6'
_chemical_formula_sum                 'Co O6 V2'
_chemical_formula_weight              256.81
_chemical_melting_point               1023.0

# Atomic parameters are cross-referenced from PDF entry 04-009-0487

_cell_length_a                        7.164(5)
_cell_length_b                        8.872(14)
_cell_length_c                        4.806(4)
_cell_angle_alpha                     90.29(9)
_cell_angle_beta                      93.66(4)
_cell_angle_gamma                     102.05(9)
_cell_formula_units_Z                 3
_cell_volume                          298.07
_symmetry_cell_setting                triclinic
_symmetry_space_group_name_H-M        P-1
_symmetry_Int_Tables_number           2

loop_
_symmetry_equiv_pos_site_id
_symmetry_equiv_pos_as_xyz
1 x,y,z
2 -x,-y,-z

loop_
_atom_site_label
_atom_site_type_symbol
_atom_site_fract_x
_atom_site_fract_y
_atom_site_fract_z
_atom_site_B_iso_or_equiv
_atom_site_symmetry_multiplicity
_atom_site_Wyckoff_symbol
_atom_site_occupancy
Co1 Co 0.0 0.5 0.0 0.63 1 c 1.0
Co2 Co 0.0199 0.1685 0.0203 0.6 2 i 1.0
V3 V 0.7121 0.9699 0.4593 0.51 2 i 1.0
V4 V 0.7115 0.6067 0.455 0.53 2 i 1.0
V5 V 0.5806 0.2628 0.1206 0.48 2 i 1.0
O6 O 0.1657 0.4888 0.3469 0.89 2 i 1.0
O7 O 0.8442 0.6387 0.1701 0.74 2 i 1.0
O8 O 0.1798 0.6989 0.8905 0.78 2 i 1.0
O9 O 0.1548 0.0192 0.8255 0.7 2 i 1.0
O10 O 0.1671 0.8931 0.3415 0.95 2 i 1.0
O11 O 0.785 0.7992 0.6368 0.7 2 i 1.0
O12 O 0.4762 0.9143 0.7011 0.71 2 i 1.0
O13 O 0.4746 0.578 0.7011 0.7 2 i 1.0
O14 O 0.5236 0.7534 0.2015 0.86 2 i 1.0

