data_00-059-0227
# Copyright 2025 International Centre for Diffraction Data. All rights reserved.

_audit_creation_date                  2025-07-04
_audit_creation_method                'Generated by PDF-5+ 2025 4.25.0.2'

_chemical_name_systematic             'Silver Indium Silicon Selenide'
_chemical_formula_moiety              'Ag2 In2 Si Se6'
_chemical_formula_sum                 'Ag2 In2 Se6 Si'
_chemical_formula_weight              947.22

# Atomic parameters are cross-referenced from PDF entry 04-013-5184

_cell_length_a                        12.6683(4)
_cell_length_b                        7.4565(3)
_cell_length_c                        12.6133(4)
_cell_angle_alpha                     90
_cell_angle_beta                      109.286(2)
_cell_angle_gamma                     90
_cell_formula_units_Z                 4
_cell_volume                          1124.60
_symmetry_cell_setting                monoclinic
_symmetry_space_group_name_H-M        Cc
_symmetry_Int_Tables_number           9

loop_
_symmetry_equiv_pos_site_id
_symmetry_equiv_pos_as_xyz
1 x,y,z
2 x,-y,z+1/2
3 x+1/2,y+1/2,z
4 x+1/2,-y+1/2,z+1/2

loop_
_atom_site_label
_atom_site_type_symbol
_atom_site_fract_x
_atom_site_fract_y
_atom_site_fract_z
_atom_site_B_iso_or_equiv
_atom_site_symmetry_multiplicity
_atom_site_Wyckoff_symbol
_atom_site_occupancy
Ag1 Ag 0.3978 0.5899 0.2528 3.33 4 a 1.0
Ag2 Ag 0.6005 0.2042 0.4148 2.88 4 a 1.0
In3 In 0.4179 0.0945 0.0615 1.34 4 a 1.0
In4 In 0.2333 0.0587 0.2576 0.74 4 a 1.0
Si5 Si 0.162 0.763 0.001 0.7 4 a 1.0
Se6 Se 0.356 0.7532 0.051 0.33 4 a 1.0
Se7 Se 0.405 0.2353 0.246 1.6 4 a 1.0
Se8 Se 0.0956 0.009 0.0563 1.57 4 a 1.0
Se9 Se 0.0982 0.269 0.3115 1.16 4 a 1.0
Se10 Se 0.2882 0.2379 0.8703 0.59 4 a 1.0
Se11 Se 0.6283 0.0185 0.0901 1.5 4 a 1.0

