data_00-059-0842
# Copyright 2025 International Centre for Diffraction Data. All rights reserved.

_audit_creation_date                  2025-07-04
_audit_creation_method                'Generated by PDF-5+ 2025 4.25.0.2'

_chemical_name_systematic             'Barium Scandium Silicate'
_chemical_formula_moiety              'Ba Sc2 ( Si3 O10 )'
_chemical_formula_sum                 'Ba O10 Sc2 Si3'
_chemical_formula_weight              471.49

# Atomic parameters are cross-referenced from PDF entry 04-017-9229

_cell_length_a                        5.273(1)
_cell_length_b                        11.9181(2)
_cell_length_c                        6.591(1)
_cell_angle_alpha                     90
_cell_angle_beta                      107.06(3)
_cell_angle_gamma                     90
_cell_formula_units_Z                 2
_cell_volume                          395.98
_symmetry_cell_setting                monoclinic
_symmetry_space_group_name_H-M        P21/m
_symmetry_Int_Tables_number           11

loop_
_symmetry_equiv_pos_site_id
_symmetry_equiv_pos_as_xyz
1 x,y,z
2 -x,-y,-z
3 -x,y+1/2,-z
4 x,-y+1/2,z

loop_
_atom_site_label
_atom_site_type_symbol
_atom_site_fract_x
_atom_site_fract_y
_atom_site_fract_z
_atom_site_U_iso_or_equiv
_atom_site_symmetry_multiplicity
_atom_site_Wyckoff_symbol
_atom_site_occupancy
Ba1 Ba 0.76012 0.25 0.02596 0.00802 2 e 1.0
Sc2 Sc 0.1522 0.10169 0.67722 0.005 4 f 1.0
Si3 Si 0.57325 0.25 0.48861 0.00455 2 e 1.0
Si4 Si 0.30205 0.05428 0.20976 0.00466 4 f 1.0
O5 O 0.3466 0.25 0.6085 0.00648 2 e 1.0
O6 O 0.8764 0.25 0.6375 0.00631 2 e 1.0
O7 O 0.5414 0.14231 0.332 0.00872 4 f 1.0
O8 O 0.4547 -0.06061 0.1994 0.00798 4 f 1.0
O9 O 0.1494 0.11263 -0.0135 0.0089 4 f 1.0
O10 O 0.0995 0.04364 0.357 0.00687 4 f 1.0

loop_
_atom_site_aniso_label
_atom_site_aniso_U_11
_atom_site_aniso_U_12
_atom_site_aniso_U_13
_atom_site_aniso_U_22
_atom_site_aniso_U_23
_atom_site_aniso_U_33
Ba1 0.00872 0.0 0.00345 0.00892 0.0 0.00713
Sc2 0.0053 -6.0E-4 0.00128 0.00548 -3.1E-4 0.00416
Si3 0.0038 0.0 0.0014 0.0058 0.0 0.0042
Si4 0.0049 3.5E-4 0.0015 0.0052 4.3E-4 0.004
O5 0.0065 0.0 0.0041 0.006 0.0 0.0082
O6 0.0047 0.0 -2.0E-4 0.0072 0.0 0.0059
O7 0.0089 -0.0026 0.0046 0.0091 -0.0038 0.0094
O8 0.0064 0.0011 0.0013 0.0064 -7.0E-4 0.0104
O9 0.0105 0.0033 0.0022 0.0105 0.0013 0.0056
O10 0.007 -0.002 0.0026 0.0087 -0.0015 0.0054

