data_00-059-0840
# Copyright 2025 International Centre for Diffraction Data. All rights reserved.

_audit_creation_date                  2025-07-04
_audit_creation_method                'Generated by PDF-5+ 2025 4.25.0.2'

_chemical_name_systematic             'Barium Erbium Silicate'
_chemical_formula_moiety              'Ba Er2 ( Si3 O10 )'
_chemical_formula_sum                 'Ba Er2 O10 Si3'
_chemical_formula_weight              716.09

# Atomic parameters are cross-referenced from PDF entry 04-017-9228

_cell_length_a                        5.389(1)
_cell_length_b                        12.163(2)
_cell_length_c                        6.840(1)
_cell_angle_alpha                     90
_cell_angle_beta                      106.47(3)
_cell_angle_gamma                     90
_cell_formula_units_Z                 2
_cell_volume                          429.94
_symmetry_cell_setting                monoclinic
_symmetry_space_group_name_H-M        P21/m
_symmetry_Int_Tables_number           11

loop_
_symmetry_equiv_pos_site_id
_symmetry_equiv_pos_as_xyz
1 x,y,z
2 -x,-y,-z
3 -x,y+1/2,-z
4 x,-y+1/2,z

loop_
_atom_site_label
_atom_site_type_symbol
_atom_site_fract_x
_atom_site_fract_y
_atom_site_fract_z
_atom_site_U_iso_or_equiv
_atom_site_symmetry_multiplicity
_atom_site_Wyckoff_symbol
_atom_site_occupancy
Ba1 Ba 0.76044 0.25 0.02001 0.00912 2 e 1.0
Er2 Er 0.15699 0.099147 0.68359 0.00606 4 f 1.0
Si3 Si 0.5821 0.25 0.48901 0.00551 2 e 1.0
Si4 Si 0.30418 0.06145 0.21296 0.00538 4 f 1.0
O5 O 0.3664 0.25 0.612 0.00754 2 e 1.0
O6 O 0.8764 0.25 0.6349 0.00695 2 e 1.0
O7 O 0.5486 0.1428 0.3391 0.00997 4 f 1.0
O8 O 0.4324 -0.05483 0.1907 0.00978 4 f 1.0
O9 O 0.1653 0.12321 0.0035 0.00967 4 f 1.0
O10 O 0.1007 0.05103 0.351 0.00872 4 f 1.0

loop_
_atom_site_aniso_label
_atom_site_aniso_U_11
_atom_site_aniso_U_12
_atom_site_aniso_U_13
_atom_site_aniso_U_22
_atom_site_aniso_U_23
_atom_site_aniso_U_33
Ba1 0.00924 0.0 0.00341 0.01048 0.0 0.00822
Er2 0.00676 -9.6E-4 0.00168 0.00609 -5.2E-4 0.0053
Si3 0.0049 0.0 6.0E-4 0.0069 0.0 0.0043
Si4 0.0059 5.0E-4 0.0016 0.0055 4.0E-4 0.0048
O5 0.0077 0.0 0.0028 0.0062 0.0 0.009
O6 0.0073 0.0 -0.001 0.006 0.0 0.0058
O7 0.0088 -0.0021 0.0038 0.0116 -0.0036 0.0102
O8 0.0094 8.0E-4 0.0027 0.0073 -0.0011 0.0124
O9 0.0125 0.0037 0.0034 0.0111 0.0021 0.0059
O10 0.0096 -0.0033 0.0044 0.0107 -0.0021 0.0071

